Circuit: * C:\Users\Jason Ui\Documents\ENEL471\LTSpice\Differential_Amplifier.asc

WARNING: Less than two connections to node VOUT.  This node is used by R4.
Direct Newton iteration for .op point succeeded.

Date: Wed Sep 22 18:54:01 2021
Total elapsed time: 0.085 seconds.

tnom = 27
temp = 27
method = modified trap
totiter = 2104
traniter = 2100
tranpoints = 1051
accept = 1051
rejected = 0
matrix size = 19
fillins = 8
solver = Normal
Matrix Compiler1: 1.21 KB object code size  0.4/0.2/[0.1]
Matrix Compiler2: 1.94 KB object code size  0.3/0.2/[0.1]

