Circuit: * C:\Users\Jason Ui\Documents\ENEL471\LTSpice\Summing_Amplifier.asc

Direct Newton iteration for .op point succeeded.

Date: Wed Sep 22 20:21:23 2021
Total elapsed time: 0.117 seconds.

tnom = 27
temp = 27
method = modified trap
totiter = 2110
traniter = 2100
tranpoints = 1051
accept = 1051
rejected = 0
matrix size = 17
fillins = 8
solver = Normal
Matrix Compiler1: 1.12 KB object code size  0.3/0.2/[0.1]
Matrix Compiler2: 1.80 KB object code size  0.2/0.2/[0.2]

