Circuit: * \\file\Usersj$\jui11\Home\My Documents\ENEL471\ENEL471-main\ENEL471\LTSpice\Summing_Amplifier.asc

Direct Newton iteration for .op point succeeded.

Date: Thu Sep 23 14:16:31 2021
Total elapsed time: 0.096 seconds.

tnom = 27
temp = 27
method = modified trap
totiter = 2110
traniter = 2100
tranpoints = 1051
accept = 1051
rejected = 0
matrix size = 17
fillins = 8
solver = Normal
Matrix Compiler1: 1.12 KB object code size  0.3/0.2/[0.1]
Matrix Compiler2: 1.80 KB object code size  0.2/0.2/[0.1]

