Circuit: * \\file\Usersj$\jui11\Home\My Documents\ENEL471\ENEL471-main\ENEL471\LTSpice\Test_Inverting_Amplifier.asc

WARNING: Specified period is not longer than the sum of Trise, Tfall, and Ton for v1.  Increasing period to 0.010002
WARNING: Less than two connections to node V1IN.  This node is used by R2.
WARNING: Less than two connections to node V2IN.  This node is used by R4.
WARNING: Less than two connections to node NC_01.  This node is used by R5.
WARNING: Less than two connections to node V3OUT.  This node is used by R8.
Direct Newton iteration for .op point succeeded.
Ignoring empty pin current: Ix(u1:1)
Ignoring empty pin current: Ix(u1:2)
Ignoring empty pin current: Ix(u1:1)
Ignoring empty pin current: Ix(u1:2)

Date: Thu Sep 23 14:12:35 2021
Total elapsed time: 0.313 seconds.

tnom = 27
temp = 27
method = modified trap
totiter = 2653
traniter = 2642
tranpoints = 1266
accept = 1233
rejected = 33
matrix size = 24
fillins = 11
solver = Normal
Matrix Compiler1: 2.12 KB object code size  0.4/0.3/[0.1]
Matrix Compiler2: 2.13 KB object code size  0.2/0.4/[0.1]

