Circuit: * C:\Users\Jason Ui\Documents\ENEL471\LTSpice\Test_Inverting_Amplifier.asc

WARNING: Less than two connections to node V2IN.  This node is used by R4.
WARNING: Less than two connections to node NC_01.  This node is used by R5.
Ignoring empty pin current: Ix(u1:1)
Ignoring empty pin current: Ix(u1:2)

Date: Wed Sep 22 18:23:32 2021
Total elapsed time: 0.075 seconds.

tnom = 27
temp = 27
method = trap
totiter = 2016
traniter = 0
tranpoints = 0
accept = 0
rejected = 0
matrix size = 17
fillins = 5
solver = Normal
Matrix Compiler1: 976 bytes object code size  0.2/0.2/[0.1]
Matrix Compiler2: 1.49 KB object code size  0.2/0.2/[0.1]

