Circuit: * C:\Users\Jason Ui\Documents\ENEL471\LTSpice\Test_Transistor_Inverter.asc

.OP point found by inspection.

Date: Wed Sep 22 16:47:47 2021
Total elapsed time: 0.061 seconds.

tnom = 27
temp = 27
method = trap
totiter = 2000
traniter = 0
tranpoints = 0
accept = 0
rejected = 0
matrix size = 3
fillins = 0
solver = Normal
Matrix Compiler1: 86 bytes object code size  0.0/0.0/[0.0]
Matrix Compiler2: 163 bytes object code size  0.0/0.0/[0.0]

