Circuit: * \\file\Usersj$\jui11\Home\My Documents\ENEL471\ENEL471-main\ENEL471\LTSpice\Test_Non_Inverting_Amplifier.asc

Direct Newton iteration for .op point succeeded.

Date: Thu Sep 23 14:47:21 2021
Total elapsed time: 0.094 seconds.

tnom = 27
temp = 27
method = modified trap
totiter = 2096
traniter = 2088
tranpoints = 1045
accept = 1045
rejected = 0
matrix size = 14
fillins = 7
solver = Normal
Matrix Compiler1: 934 bytes object code size  0.3/0.1/[0.1]
Matrix Compiler2: 1.60 KB object code size  0.2/0.2/[0.1]

